
     RDKit          3D

  7  6  0  0  0  0  0  0  0  0999 V2000
   -0.5449    0.0217   -0.1813 C   0  0  0  0  0  0  0  0  0  0  0  0
    0.8594   -0.2905    0.0155 N   0  0  0  0  0  0  0  0  0  0  0  0
   -0.7263    0.3463   -1.2100 H   0  0  0  0  0  0  0  0  0  0  0  0
   -1.1601   -0.8593    0.0223 H   0  0  0  0  0  0  0  0  0  0  0  0
   -0.8528    0.8211    0.4984 H   0  0  0  0  0  0  0  0  0  0  0  0
    0.9508   -1.2559    0.3287 H   0  0  0  0  0  0  0  0  0  0  0  0
    1.2332    0.2879    0.7669 H   0  0  0  0  0  0  0  0  0  0  0  0
  1  2  1  0
  1  3  1  0
  1  4  1  0
  1  5  1  0
  2  6  1  0
  2  7  1  0
M  END
$$$$
