benzene
  PyMOL2.5          3D                             0

 12 12  0  0  0  0  0  0  0  0999 V2000
    1.4045   -0.0000    0.0000 C   0  0  0  0  0  0  0  0  0  0  0  0
    0.7022    1.2164    0.0000 C   0  0  0  0  0  0  0  0  0  0  0  0
   -0.7023    1.2164    0.0000 C   0  0  0  0  0  0  0  0  0  0  0  0
   -1.4045   -0.0000    0.0000 C   0  0  0  0  0  0  0  0  0  0  0  0
   -0.7023   -1.2164    0.0000 C   0  0  0  0  0  0  0  0  0  0  0  0
    0.7023   -1.2164    0.0000 C   0  0  0  0  0  0  0  0  0  0  0  0
    2.5079   -0.0000    0.0000 H   0  0  0  0  0  0  0  0  0  0  0  0
    1.2540    2.1720    0.0000 H   0  0  0  0  0  0  0  0  0  0  0  0
   -1.2540    2.1720    0.0000 H   0  0  0  0  0  0  0  0  0  0  0  0
   -2.5079   -0.0000    0.0000 H   0  0  0  0  0  0  0  0  0  0  0  0
   -1.2540   -2.1719    0.0000 H   0  0  0  0  0  0  0  0  0  0  0  0
    1.2540   -2.1720    0.0000 H   0  0  0  0  0  0  0  0  0  0  0  0
  1  2  2  0  0  0  0
  1  6  1  0  0  0  0
  1  7  1  0  0  0  0
  2  3  1  0  0  0  0
  2  8  1  0  0  0  0
  3  4  2  0  0  0  0
  3  9  1  0  0  0  0
  4  5  1  0  0  0  0
  4 10  1  0  0  0  0
  5  6  2  0  0  0  0
  5 11  1  0  0  0  0
  6 12  1  0  0  0  0
M  END
$$$$
aniline
  PyMOL2.5          3D                             0

 15 15  0  0  0  0  0  0  0  0999 V2000
    1.4045   -0.0000    0.0000 C   0  0  0  0  0  0  0  0  0  0  0  0
    0.7022    1.2164    0.0000 C   0  0  0  0  0  0  0  0  0  0  0  0
   -0.7023    1.2164    0.0000 C   0  0  0  0  0  0  0  0  0  0  0  0
   -1.4045   -0.0000    0.0000 C   0  0  0  0  0  0  0  0  0  0  0  0
   -0.7023   -1.2164    0.0000 C   0  0  0  0  0  0  0  0  0  0  0  0
    0.7023   -1.2164    0.0000 C   0  0  0  0  0  0  0  0  0  0  0  0
    3.2106    0.8251    0.4756 H   0  0  0  0  0  0  0  0  0  0  0  0
    3.2117   -0.8238    0.4772 H   0  0  0  0  0  0  0  0  0  0  0  0
    3.2117   -0.0000   -0.9520 H   0  0  0  0  0  0  0  0  0  0  0  0
    2.8745   -0.0000    0.0000 N   0  3  0  0  0  0  0  0  0  0  0  0
    1.2540    2.1720    0.0000 H   0  0  0  0  0  0  0  0  0  0  0  0
   -1.2540    2.1720    0.0000 H   0  0  0  0  0  0  0  0  0  0  0  0
   -2.5079   -0.0000    0.0000 H   0  0  0  0  0  0  0  0  0  0  0  0
   -1.2540   -2.1719    0.0000 H   0  0  0  0  0  0  0  0  0  0  0  0
    1.2540   -2.1720    0.0000 H   0  0  0  0  0  0  0  0  0  0  0  0
  1  2  2  0  0  0  0
  1  6  1  0  0  0  0
  1 10  1  0  0  0  0
  2  3  1  0  0  0  0
  2 11  1  0  0  0  0
  3  4  2  0  0  0  0
  3 12  1  0  0  0  0
  4  5  1  0  0  0  0
  4 13  1  0  0  0  0
  5  6  2  0  0  0  0
  5 14  1  0  0  0  0
  6 15  1  0  0  0  0
  7 10  1  0  0  0  0
  8 10  1  0  0  0  0
  9 10  1  0  0  0  0
M  END
$$$$
benzoic_acid
  PyMOL2.5          3D                             0

 14 14  0  0  0  0  0  0  0  0999 V2000
    1.4045   -0.0000    0.0000 C   0  0  0  0  0  0  0  0  0  0  0  0
    2.7445   -0.0000    0.0000 C   0  0  0  0  0  0  0  0  0  0  0  0
    3.2607   -1.0833    0.0000 O   0  5  0  0  0  0  0  0  0  0  0  0
    0.7022    1.2164    0.0000 C   0  0  0  0  0  0  0  0  0  0  0  0
   -0.7023    1.2164    0.0000 C   0  0  0  0  0  0  0  0  0  0  0  0
    3.4265    1.0159    0.0000 O   0  0  0  0  0  0  0  0  0  0  0  0
   -1.4045   -0.0000    0.0000 C   0  0  0  0  0  0  0  0  0  0  0  0
   -0.7023   -1.2164    0.0000 C   0  0  0  0  0  0  0  0  0  0  0  0
    0.7023   -1.2164    0.0000 C   0  0  0  0  0  0  0  0  0  0  0  0
    1.2540    2.1720    0.0000 H   0  0  0  0  0  0  0  0  0  0  0  0
   -1.2540    2.1720    0.0000 H   0  0  0  0  0  0  0  0  0  0  0  0
   -2.5079   -0.0000    0.0000 H   0  0  0  0  0  0  0  0  0  0  0  0
   -1.2540   -2.1719    0.0000 H   0  0  0  0  0  0  0  0  0  0  0  0
    1.2540   -2.1720    0.0000 H   0  0  0  0  0  0  0  0  0  0  0  0
  1  2  1  0  0  0  0
  1  4  2  0  0  0  0
  1  9  1  0  0  0  0
  2  3  1  0  0  0  0
  2  6  2  0  0  0  0
  4  5  1  0  0  0  0
  4 10  1  0  0  0  0
  5  7  2  0  0  0  0
  5 11  1  0  0  0  0
  7  8  1  0  0  0  0
  7 12  1  0  0  0  0
  8  9  2  0  0  0  0
  8 13  1  0  0  0  0
  9 14  1  0  0  0  0
M  END
$$$$
